6
i =        6, E =       -35.9457703059
C         7.4128958367        8.0016861024        8.3883748507
CL         5.9613621242        7.4475436769        9.3985755900
H         7.8387173567        7.1252181031        7.8731305693
H         8.1602329735        8.4489135729        9.0637934181
H         7.0608047860        8.7459166376        7.6553028812
Br        10.1080599815        8.9193663439        6.6171488167
6
i =        6, E =       -35.9458985141
C         7.5132375792        7.9024352990        8.3905641736
CL         6.0348872379        7.1931720003        9.2796223954
H         8.0436543443        7.0755280552        7.8914998444
H         8.1615676790        8.3882679776        9.1372588621
H         7.1526071210        8.6358665283        7.6516750890
Br        10.0774193405        9.1536033969        6.8027830019
6
i =        6, E =       -35.9458022378
C         7.5983223564        7.7971715899        8.3011012783
CL         6.1590638911        6.9828200310        9.1967089584
H         8.1305459095        7.0143553596        7.7385515416
H         8.2521433674        8.2528131298        9.0609013731
H         7.1824925925        8.5602643320        7.6249541887
Br        10.0478957655        9.1557409499        6.7940688673
6
i =        6, E =       -35.9454542758
C         7.6245532626        7.7998626454        8.2819782758
CL         6.1793595773        6.9498596779        9.1746117494
H         8.1717938091        7.0195027032        7.7319040578
H         8.2541724965        8.2683305764        9.0533722259
H         7.1923500506        8.5479492618        7.6002790443
Br         9.9811999664        9.1707845946        6.8070397467
6
i =        6, E =       -35.9448545100
C         7.6828687769        7.8017343263        8.1985858224
CL         6.2350576525        7.0276165184        9.2000175135
H         8.1545409105        6.9768996025        7.6449522376
H         8.3636913653        8.2547138164        8.9335672861
H         7.2345676274        8.5504272614        7.5295719863
Br         9.9547995839        9.0386741168        6.6331677221
6
i =        6, E =       -35.9439748805
C         7.7082606734        7.8029707367        8.1946551056
CL         6.2500358143        7.0226979965        9.2300040433
H         8.1643055636        6.9656054596        7.6486818539
H         8.3855931139        8.2551503908        8.9322359749
H         7.2391772305        8.5431274700        7.5320060959
Br         9.9023280771        8.9894271599        6.6159801637
6
i =        6, E =       -35.9428007883
C         7.7257720073        7.8401784576        8.1926317832
CL         6.2585092349        7.0192308392        9.2476852018
H         8.1965607661        6.9971469571        7.6702056127
H         8.3714806889        8.3167600307        8.9416262002
H         7.2218288813        8.5512584470        7.5252797040
Br         9.8584087951        9.0424858206        6.6648081927
6
i =        6, E =       -35.9414595608
C         7.7629680648        7.8567025302        8.1854055539
CL         6.2705018690        6.9695748513        9.2260318073
H         8.2445502420        7.0172089346        7.6696524650
H         8.3700743030        8.3287819638        8.9671310387
H         7.2311128382        8.5562390389        7.5294636370
Br         9.8440034043        9.0843049613        6.7211926850
6
i =        6, E =       -35.9400427832
C         7.8154919934        7.9044438857        8.1897870562
CL         6.3055578969        6.9845609188        9.2622635816
H         8.2630560788        7.0562704569        7.6600875743
H         8.4231827429        8.3445964941        8.9882251624
H         7.2534448985        8.6122576232        7.5703922422
Br         9.8378308081        9.1327819836        6.7515525591
6
i =        5, E =       -35.9385502365
C         7.8195223051        7.9100646599        8.0891857412
CL         6.2614030500        6.9420568207        9.1429587278
H         8.2774336499        7.0516525960        7.5877646411
H         8.3728896193        8.3503971469        8.9245768294
H         7.2364334855        8.5945660311        7.4651209588
Br         9.8185718571        9.1554883105        6.7356090720
6
i =        6, E =       -35.9371142566
C         7.8621746581        7.9062292520        8.0925805178
CL         6.2730282612        6.9016576942        9.1697767599
H         8.2976539293        7.0326227854        7.5995216965
H         8.3928749558        8.3288847635        8.9501607561
H         7.2447455940        8.5783388223        7.4901681837
Br         9.8156854107        9.1504123889        6.7687272553
6
i =        7, E =       -35.9358351250
C         7.8961773683        7.9229689226        8.0747808368
CL         6.2676517102        6.8870172844        9.1697560761
H         8.3097796874        7.0319125422        7.5960487669
H         8.3983494974        8.3286030730        8.9564606593
H         7.2484323925        8.5804461921        7.4896445053
Br         9.8116645628        9.1548684026        6.7797137658
6
i =        7, E =       -35.9347582953
C         7.9236828353        7.9469800969        8.0531863249
CL         6.2578650072        6.8786225110        9.1709477467
H         8.3110061651        7.0361010453        7.5916001285
H         8.3964374654        8.3325246456        8.9590764750
H         7.2443681140        8.5881691444        7.4874760286
Br         9.8088874582        9.1579491709        6.7873400666
6
i =        9, E =       -35.9340191457
C         7.9517411851        8.0038914048        7.9981288907
CL         6.2438296844        6.9094363577        9.1365630935
H         8.3004483498        7.0726050899        7.5475319817
H         8.3978452080        8.3576429948        8.9296734471
H         7.2417832206        8.6357433183        7.4608671576
Br         9.8049636142        9.1945367502        6.7605892797
6
i =        9, E =       -35.9335454988
C         8.0040666431        8.0102126086        7.9892445976
CL         6.2536941687        6.9041389820        9.1603785707
H         8.3188591020        7.0555834095        7.5636042429
H         8.4218695316        8.3485113486        8.9393092607
H         7.2634895398        8.6215721251        7.4700202173
Br         9.8242781528        9.1657614090        6.7655807174
6
i =        9, E =       -35.9333429091
C         8.0170506978        8.0096537387        7.9877412782
CL         6.2249480827        6.9066297545        9.2046475895
H         8.2936440564        7.0283508218        7.5974289418
H         8.4064614095        8.3401308399        8.9525966141
H         7.2491652723        8.5980197682        7.4815950082
Br         9.8089440258        9.1135148635        6.7711967329
6
i =        9, E =       -35.9334122723
C         8.0470657884        8.0231071886        7.9701020338
CL         6.2106622682        6.9362032671        9.2373287270
H         8.2751806317        7.0167838758        7.6126216811
H         8.4153295667        8.3408562916        8.9478545657
H         7.2531778797        8.5954992422        7.4853798212
Br         9.8060258284        9.0700028147        6.7524346251
6
i =        7, E =       -35.9337481834
C         8.1280160986        8.0087328204        7.9888535295
CL         6.2651124525        6.8594111198        9.2657732613
H         8.3013411190        7.0060754916        7.5896393215
H         8.4949844062        8.2452462893        8.9908629207
H         7.3076681368        8.6022796194        7.5770986658
Br         9.8438749391        9.0685623733        6.8143497365
6
i =        7, E =       -35.9342591098
C         8.1194686175        8.0990866397        7.8960658537
CL         6.2237254705        6.8973102049        9.1814674987
H         8.3104120080        7.0779565294        7.5536803676
H         8.4221622418        8.3598027177        8.9143237691
H         7.2665564450        8.6309726823        7.4647501099
Br         9.7950538295        9.1594121698        6.7581288554
6
i =        7, E =       -35.9348216170
C         8.1317106568        8.1013765592        7.8946765602
CL         6.2030099340        6.8520413789        9.1957253280
H         8.3091648114        7.0709850855        7.5704109196
H         8.3950776445        8.3465144481        8.9284769729
H         7.2571449231        8.6080714363        7.4739705316
Br         9.7752277918        9.1569894563        6.7975806134
6
i =        7, E =       -35.9353949258
C         8.1683583820        8.1068387940        7.8910401988
CL         6.1920243666        6.8226750926        9.2034783059
H         8.3290993070        7.0678516061        7.5822634301
H         8.4027618420        8.3367061944        8.9364215078
H         7.2725463364        8.5909448376        7.4857615687
Br         9.7758421852        9.1550192427        6.8208249838
6
i =        8, E =       -35.9358960623
C         8.2006682949        8.1073625944        7.8874420392
CL         6.1715508797        6.7974421436        9.2223777388
H         8.3424688947        7.0624884510        7.5852974264
H         8.4170504846        8.3173992573        8.9419164421
H         7.2890013793        8.5788202289        7.5005543255
Br         9.7796422130        9.1442855150        6.8414504558
6
i =        8, E =       -35.9362661987
C         8.1979255592        8.0984379421        7.8962635153
CL         6.1180419908        6.7615952094        9.2620110101
H         8.2834078321        7.0540745563        7.5688217744
H         8.4249551844        8.2523989385        8.9591499356
H         7.2795735573        8.5968429511        7.5592744968
Br         9.7597963549        9.1069780210        6.8684006017
6
i =        8, E =       -35.9364321606
C         8.2860840744        8.1948325219        7.8021869449
CL         6.1440676532        6.8312097276        9.1913030367
H         8.3738710780        7.1380486474        7.5148361390
H         8.4740829967        8.3685261781        8.8706250204
H         7.3580164054        8.6626136535        7.4457042883
Br         9.8339408341        9.1805377692        6.7928974349
6
i =        8, E =       -35.9363962849
C         8.2872113716        8.1945647351        7.8081944517
CL         6.1052305099        6.8061851667        9.2670546575
H         8.3687615875        7.1296558470        7.5468914785
H         8.4579879322        8.3778993113        8.8788119539
H         7.3503689167        8.6447170299        7.4493512823
Br         9.8161687605        9.1593162606        6.8011881704
6
i =        8, E =       -35.9361500736
C         8.2913015318        8.1967259809        7.8027468246
CL         6.0438158982        6.8023540883        9.3192007898
H         8.3530046198        7.1264959768        7.5551340112
H         8.4616591647        8.3808051266        8.8740070405
H         7.3493700142        8.6455598585        7.4535624768
Br         9.8065231238        9.1311484322        6.7881171245
6
i =        8, E =       -35.9356872776
C         8.3594516136        8.1959258008        7.7948666603
CL         6.0220170652        6.8256571223        9.3667842450
H         8.4080999367        7.1203934766        7.5649392022
H         8.5321842143        8.3895749978        8.8646205167
H         7.4113851983        8.6388352870        7.4526290356
Br         9.8599029129        9.1016831101        6.7650499290
6
i =        8, E =       -35.9351012531
C         8.3941134543        8.2936265798        7.8054495280
CL         5.9909918412        6.9183560932        9.4472460992
H         8.4229710943        7.2130108851        7.5944008954
H         8.5541905683        8.4942866772        8.8764976390
H         7.4529363218        8.7439327075        7.4527212692
Br         9.9077138628        9.1573212279        6.7850477826
